Version 4
SHEET 1 1020 680
WIRE 64 96 -32 96
WIRE 464 96 256 96
WIRE 816 96 464 96
WIRE 960 96 816 96
WIRE 816 112 816 96
WIRE 960 112 960 96
WIRE 64 128 64 96
WIRE 256 128 256 96
WIRE -32 144 -32 96
WIRE 352 176 320 176
WIRE 576 176 432 176
WIRE 464 224 464 96
WIRE 64 240 64 208
WIRE 144 240 64 240
WIRE 320 240 320 176
WIRE 320 240 224 240
WIRE 432 240 320 240
WIRE 576 256 576 176
WIRE 576 256 496 256
WIRE 624 256 576 256
WIRE 752 256 704 256
WIRE 64 272 64 240
WIRE 256 272 256 208
WIRE 304 272 256 272
WIRE 432 272 384 272
WIRE 752 272 752 256
WIRE 768 272 752 272
WIRE 256 288 256 272
WIRE 576 304 576 256
WIRE -32 432 -32 224
WIRE 64 432 64 352
WIRE 64 432 -32 432
WIRE 256 432 256 368
WIRE 256 432 64 432
WIRE 352 432 256 432
WIRE 464 432 464 288
WIRE 464 432 352 432
WIRE 576 432 576 384
WIRE 576 432 464 432
WIRE 816 432 816 288
WIRE 816 432 576 432
WIRE 960 432 960 192
WIRE 960 432 816 432
WIRE 352 496 352 432
FLAG 352 496 0
SYMBOL res 48 256 R0
SYMATTR InstName R1
SYMATTR Value 29R
SYMBOL res 272 384 R180
WINDOW 0 36 76 Left 0
WINDOW 3 36 40 Left 0
SYMATTR InstName R3
SYMATTR Value 300R
SYMBOL voltage 960 96 R0
SYMATTR InstName V1
SYMATTR Value 12
SYMBOL res 288 288 R270
WINDOW 0 32 56 VTop 2
WINDOW 3 0 56 VBottom 2
SYMATTR InstName R5
SYMATTR Value 1K
SYMBOL res 48 112 R0
SYMATTR InstName R6
SYMATTR Value 1K
SYMBOL Opamps/LT1006 464 192 R0
SYMATTR InstName U2
SYMBOL res 592 400 R180
WINDOW 0 36 76 Left 0
WINDOW 3 36 40 Left 0
SYMATTR InstName R2
SYMATTR Value 10K
SYMBOL res 128 256 R270
WINDOW 0 32 56 VTop 2
WINDOW 3 0 56 VBottom 2
SYMATTR InstName R4
SYMATTR Value 1K
SYMBOL res 240 112 R0
SYMATTR InstName R7
SYMATTR Value 10K
SYMBOL res 448 160 R90
WINDOW 0 0 56 VBottom 2
WINDOW 3 32 56 VTop 2
SYMATTR InstName R8
SYMATTR Value 100K
SYMBOL nmos 768 192 R0
SYMATTR InstName M1
SYMATTR Value 2N7002
SYMBOL res 832 208 R180
WINDOW 0 36 76 Left 0
WINDOW 3 36 40 Left 0
SYMATTR InstName R9
SYMATTR Value 600R
SYMBOL res 608 272 R270
WINDOW 0 32 56 VTop 2
WINDOW 3 0 56 VBottom 2
SYMATTR InstName R10
SYMATTR Value 1K
SYMBOL voltage -32 128 R0
SYMATTR InstName V2
SYMATTR Value 12
TEXT 808 392 Left 2 !.tran 1s startup
